------- AERODYN v15 for OpenFAST INPUT FILE -----------------------------------------------
Aventa aerodynamic input properties.
======  General Options  ============================================================================
False         Echo               - Echo the input to "<rootname>.AD.ech"?  (flag)
"default"     DTAero             - Time interval for aerodynamic calculations {or "default"} (s)
          0   WakeMod            - Type of wake/induction model (switch) {0=none, 1=BEMT, 2=DBEMT} [WakeMod cannot be 2 when linearizing]
          1   AFAeroMod          - Type of blade airfoil aerodynamics model (switch) {1=steady model, 2=Beddoes-Leishman unsteady model} [AFAeroMod must be 1 when linearizing]
          0   TwrPotent          - Type tower influence on wind based on potential flow around the tower (switch) {0=none, 1=baseline potential flow, 2=potential flow with Bak correction}
          0   TwrShadow          - Calculate tower influence on wind based on downstream tower shadow? (flag)
False         TwrAero            - Calculate tower aerodynamic loads? (flag)
False         FrozenWake         - Assume frozen wake during linearization? (flag) [used only when WakeMod=1 and when linearizing]
False         CavitCheck         - Perform cavitation check? (flag) [AFAeroMod must be 1 when CavitCheck=true]
False         Buoyancy           - Include buoyancy effects? (flag)
False         CompAA             - Flag to compute AeroAcoustics calculation [only used when WakeMod=1 or 2]
"unused"      AA_InputFile       - Aeroacoustics input file
======  Environmental Conditions  ===================================================================
      1.225   AirDens            - Air density (kg/m^3)
  1.464E-05   KinVisc            - Kinematic air viscosity (m^2/s)
        335   SpdSound           - Speed of sound (m/s)
     103500   Patm               - Atmospheric pressure (Pa) [used only when CavitCheck=True]
       1700   Pvap               - Vapour pressure of fluid (Pa) [used only when CavitCheck=True]
======  Blade-Element/Momentum Theory Options  ====================================================== [unused when WakeMod=0]
          1   SkewMod            - Type of skewed-wake correction model (switch) {1=uncoupled, 2=Pitt/Peters, 3=coupled} [unused when WakeMod=0]
"default"     SkewModFactor      - Constant used in Pitt/Peters skewed wake model {or "default" is 15/32*pi} (-) [used only when SkewMod=2; unused when WakeMod=0]
True          TipLoss            - Use the Prandtl tip-loss model? (flag) [unused when WakeMod=0]
True          HubLoss            - Use the Prandtl hub-loss model? (flag) [unused when WakeMod=0]
True          TanInd             - Include tangential induction in BEMT calculations? (flag) [unused when WakeMod=0]
True          AIDrag             - Include the drag term in the axial-induction calculation? (flag) [unused when WakeMod=0]
True          TIDrag             - Include the drag term in the tangential-induction calculation? (flag) [unused when WakeMod=0 or TanInd=FALSE]
1e-5          IndToler           - Convergence tolerance for BEMT nonlinear solve residual equation {or "default"} (-) [unused when WakeMod=0]
1000           MaxIter            - Maximum number of iteration steps (-) [unused when WakeMod=0]
======  Dynamic Blade-Element/Momentum Theory Options  ============================================== [used only when WakeMod=2]
          2   DBEMT_Mod          - Type of dynamic BEMT (DBEMT) model {1=constant tau1, 2=time-dependent tau1} (-) [used only when WakeMod=2]
          4   tau1_const         - Time constant for DBEMT (s) [used only when WakeMod=2 and DBEMT_Mod=1]
======  OLAF -- cOnvecting LAgrangian Filaments (Free Vortex Wake) Theory Options  ================== [used only when WakeMod=3]
"unused"      OLAFInputFileName - Input file for OLAF [used only when WakeMod=3]
======  Beddoes-Leishman Unsteady Airfoil Aerodynamics Options  ===================================== [used only when AFAeroMod=2]
          3   UAMod              - Unsteady Aero Model Switch (switch) {1=Baseline model (Original), 2=Gonzalez's variant (changes in Cn,Cc,Cm), 3=Minemma/Pierce variant (changes in Cc and Cm)} [used only when AFAeroMod=2]
True          FLookup            - Flag to indicate whether a lookup for f' will be calculated (TRUE) or whether best-fit exponential equations will be used (FALSE); if FALSE S1-S4 must be provided in airfoil input files (flag) [used only when AFAeroMod=2]
======  Airfoil Information =========================================================================
          1   AFTabMod           - Interpolation method for multiple airfoil tables {1=1D interpolation on AoA (first table only); 2=2D interpolation on AoA and Re; 3=2D interpolation on AoA and UserProp} (-)
          1   InCol_Alfa         - The column in the airfoil tables that contains the angle of attack (-)
          2   InCol_Cl           - The column in the airfoil tables that contains the lift coefficient (-)
          3   InCol_Cd           - The column in the airfoil tables that contains the drag coefficient (-)
          4   InCol_Cm           - The column in the airfoil tables that contains the pitching-moment coefficient; use zero if there is no Cm column (-)
          0   InCol_Cpmin        - The column in the airfoil tables that contains the Cpmin coefficient; use zero if there is no Cpmin column (-)
          9   NumAFfiles        - Number of airfoil files used (-)
"Airfoils/cylinder.dat"	   AFNames	- Airfoil file names (NumAFfiles lines) (quoted strings)	
"Airfoils/cylinder.dat"	   
"Airfoils/airfoil_0.dat"  
"Airfoils/airfoil_1.dat"	
"Airfoils/airfoil_2.dat"	
"Airfoils/airfoil_3.dat"	
"Airfoils/airfoil_4.dat"	
"Airfoils/airfoil_5.dat"	
"Airfoils/airfoil_6.dat"	
======  Rotor/Blade Properties  =====================================================================
True          UseBlCm            - Include aerodynamic pitching moment in calculations?  (flag)
"Aventa_AeroDyn15_blade_1.dat"    ADBlFile(1)        - Name of file containing distributed aerodynamic properties for Blade #1 (-)
"Aventa_AeroDyn15_blade_2.dat"    ADBlFile(2)        - Name of file containing distributed aerodynamic properties for Blade #2 (-) [unused if NumBl < 2]
"Aventa_AeroDyn15_blade_3.dat"    ADBlFile(3)        - Name of file containing distributed aerodynamic properties for Blade #3 (-) [unused if NumBl < 3]
======  Hub Properties ============================================================================== [used only when Buoyancy=True]
        0.0   VolHub             - Hub volume (m^3)
        0.0   HubCenBx           - Hub center of buoyancy x direction offset (m)
======  Nacelle Properties ========================================================================== [used only when Buoyancy=True]
        0.0   VolNac             - Nacelle volume (m^3)
0.0, 0.0, 0.0 NacCenB            - Position of nacelle center of buoyancy from yaw bearing in nacelle coordinates (m)
====== Tail fin Aerodynamics ========================================================================
          False        TFinAero - Calculate tail fin aerodynamics model (flag)
          “AD_Fin.dat” TFinFile - Input file for tail fin aerodynamics [used only when TFinAero=True]
======  Tower Influence and Aerodynamics ============================================================= [used only when TwrPotent/=0, TwrShadow=True, or TwrAero=True]
         8   NumTwrNds         - Number of tower nodes used in the analysis  (-) [used only when TwrPotent/=0, TwrShadow=True, or TwrAero=True, or Buoyancy=True]
TwrElev        TwrDiam        TwrCd             TwrTI (used only with TwrShadow=2) TwrCb (used only with Buoyancy=True)
(m)              (m)           (-)               (-)                               (-)
0.0000000E+00  0.7500000E+00  1.0000000E+00  1.0000000E-01                         0.0  
3.9166666E+00  0.6960000E+00  1.0000000E+00  1.0000000E-01                         0.0
7.8333333E+00  0.6420000E+00  1.0000000E+00  1.0000000E-01                         0.0
1.1750000E+01  0.5880000E+00  1.0000000E+00  1.0000000E-01                         0.0
1.1800000E+01  0.4930000E+00  1.0000000E+00  1.0000000E-01                         0.0
1.3866666E+01  0.4620000E+00  1.0000000E+00  1.0000000E-01                         0.0
1.5933333E+01  0.4310000E+00  1.0000000E+00  1.0000000E-01                         0.0
1.8000000E+01  0.4000000E+00  1.0000000E+00  1.0000000E-01                         0.0
======  Outputs  ====================================================================================
True          SumPrint            - Generate a summary file listing input options and interpolated properties to "<rootname>.AD.sum"?  (flag)
          9   NBlOuts             - Number of blade node outputs [0 - 9] (-)
          1,  4,  7,  11, 15,  19, 23,  27, 30   BlOutNd      - Blade nodes whose values will be output  (-)
          0   NTwOuts             - Number of tower node outputs [0 - 9]  (-)
          1,  4,  7,  11, 15,  19, 23,  27, 30       TwOutNd             - Tower nodes whose values will be output  (-)
              OutList             - The next line(s) contains a list of output parameters.  See OutListParameters.xlsx for a listing of available output channels, (-)
"B1N1Cl"               		  - Lift force coefficient at Blade 1, Node 1         
"B1N2Cl"               		  - Lift force coefficient at Blade 1, Node 2         
"B1N3Cl"               		  - Lift force coefficient at Blade 1, Node 3         
"B1N4Cl"               		  - Lift force coefficient at Blade 1, Node 4         
"B1N5Cl"               		  - Lift force coefficient at Blade 1, Node 5    
"B1N6Cl"               		  - Lift force coefficient at Blade 1, Node 6    
"B1N7Cl"               		  - Lift force coefficient at Blade 1, Node 7    
"B1N8Cl"               		  - Lift force coefficient at Blade 1, Node 8    
"B1N9Cl"               		  - Lift force coefficient at Blade 1, Node 9         
"B2N1Cl"               		  - Lift force coefficient at Blade 2, Node 1         
"B2N2Cl"               		  - Lift force coefficient at Blade 2, Node 2         
"B2N3Cl"               		  - Lift force coefficient at Blade 2, Node 3         
"B2N4Cl"               		  - Lift force coefficient at Blade 2, Node 4       
"B2N5Cl"               		  - Lift force coefficient at Blade 2, Node 5       
"B2N6Cl"               		  - Lift force coefficient at Blade 2, Node 6       
"B2N7Cl"               		  - Lift force coefficient at Blade 2, Node 7       
"B2N8Cl"               		  - Lift force coefficient at Blade 2, Node 8       
"B2N9Cl"               		  - Lift force coefficient at Blade 2, Node 9       
"B3N1Cl"               		  - Lift force coefficient at Blade 3, Node 1         
"B3N2Cl"               		  - Lift force coefficient at Blade 3, Node 2         
"B3N3Cl"               		  - Lift force coefficient at Blade 3, Node 3         
"B3N4Cl"               		  - Lift force coefficient at Blade 3, Node 4   
"B3N5Cl"               		  - Lift force coefficient at Blade 3, Node 5   
"B3N6Cl"               		  - Lift force coefficient at Blade 3, Node 6   
"B3N7Cl"               		  - Lift force coefficient at Blade 3, Node 7   
"B3N8Cl"               		  - Lift force coefficient at Blade 3, Node 8   
"B3N9Cl"               		  - Lift force coefficient at Blade 3, Node 9   
"B1N1Cd"               		  - Drag force coefficient at Blade 1, Node 1         
"B1N2Cd"               		  - Drag force coefficient at Blade 1, Node 2         
"B1N3Cd"               		  - Drag force coefficient at Blade 1, Node 3         
"B1N4Cd"               		  - Drag force coefficient at Blade 1, Node 4         
"B1N5Cd"               		  - Drag force coefficient at Blade 1, Node 5    
"B1N6Cd"               		  - Drag force coefficient at Blade 1, Node 6    
"B1N7Cd"               		  - Drag force coefficient at Blade 1, Node 7    
"B1N8Cd"               		  - Drag force coefficient at Blade 1, Node 8    
"B1N9Cd"               		  - Drag force coefficient at Blade 1, Node 9         
"B2N1Cd"               		  - Drag force coefficient at Blade 2, Node 1         
"B2N2Cd"               		  - Drag force coefficient at Blade 2, Node 2         
"B2N3Cd"               		  - Drag force coefficient at Blade 2, Node 3         
"B2N4Cd"               		  - Drag force coefficient at Blade 2, Node 4       
"B2N5Cd"               		  - Drag force coefficient at Blade 2, Node 5       
"B2N6Cd"               		  - Drag force coefficient at Blade 2, Node 6       
"B2N7Cd"               		  - Drag force coefficient at Blade 2, Node 7       
"B2N8Cd"               		  - Drag force coefficient at Blade 2, Node 8       
"B2N9Cd"               		  - Drag force coefficient at Blade 2, Node 9       
"B3N1Cd"               		  - Drag force coefficient at Blade 3, Node 1         
"B3N2Cd"               		  - Drag force coefficient at Blade 3, Node 2         
"B3N3Cd"               		  - Drag force coefficient at Blade 3, Node 3         
"B3N4Cd"               		  - Drag force coefficient at Blade 3, Node 4   
"B3N5Cd"               		  - Drag force coefficient at Blade 3, Node 5   
"B3N6Cd"               		  - Drag force coefficient at Blade 3, Node 6   
"B3N7Cd"               		  - Drag force coefficient at Blade 3, Node 7   
"B3N8Cd"               		  - Drag force coefficient at Blade 3, Node 8   
"B3N9Cd"               		  - Drag force coefficient at Blade 3, Node 9  
"RtSpeed"		          - Rotor speed (rpm)
"RtAeroPwr"		          - Rotor aerodynamic power (W)
END of input file (the word "END" must appear in the first 3 columns of this last OutList line)
====== Outputs for all blade stations (same ending as above for B1N1.... ============================ [optional section]
   1              BldNd_BladesOut     - Number of blades to output all node information at.  Up to number of blades on turbine. (-)
   "All"          BldNd_BlOutNd       - Future feature will allow selecting a portion of the nodes to output.  Not implemented yet. (-)
                  OutList             - The next line(s) contains a list of output parameters.  See OutListParameters.xlsx for a listing of available output channels, (-)
"Fx, Fy"
"Vx, Vy"
Vrel
TnInd
AxInd
Theta
Phi
Vindx
Vindy
Alpha
END (the word "END" must appear in the first 3 columns of this last OutList line in the optional nodal output section)